13
Energy =
N    -2.3622264   -0.9222589    0.0000021 
C    -1.1651302   -0.2734231   -0.0000042 
N    -0.0740033   -1.0281644   -0.0000085 
C     1.1752590   -0.4600102   -0.0000007 
O     2.2407357   -1.0596713    0.0000103 
N     1.2053962    0.9812076   -0.0000004 
C     0.0914600    1.7565600   -0.0000014 
C    -1.1470844    1.1728645   -0.0000011 
H    -2.0590432    1.7732005    0.0000075 
H     0.2401072    2.8411355   -0.0000055 
H     2.1373640    1.3942987   -0.0000032 
H    -2.3526113   -1.9388304   -0.0000017 
H    -3.2456560   -0.4262438    0.0000021 
