15
Energy =
N     1.8568258   -1.8478779    0.0004298 
C     1.2264667   -0.6481723    0.0000724 
C    -0.1889299   -0.5348452    0.0001429 
C    -0.6951103    0.7812120    0.0000651 
N    -2.0687049    0.6169371   -0.0000274 
C    -2.3104791   -0.7472346   -0.0000132 
N    -1.2093060   -1.4726188    0.0001134 
H    -3.3283196   -1.1434598   -0.0001232 
H    -2.7557449    1.3675183   -0.0001239 
N     0.0140292    1.9198674   -0.0000454 
C     1.3341839    1.6699395   -0.0000627 
N     1.9664833    0.4808639   -0.0000783 
H     1.9899118    2.5509519    0.0000149 
H     1.3163594   -2.7062203   -0.0018135 
H     2.8717558   -1.8734906   -0.0018858 
