18
Energy = -310.6661278573
C     0.3790465   -0.6112819    0.0000000 
C    -0.3790465    0.6112819    0.0000000 
C    -0.1716517   -1.8638127    0.0000000 
C     0.1716517    1.8638127    0.0000000 
C     0.5963448   -3.0895177    0.0000000 
C    -0.5963448    3.0895177    0.0000000 
C     0.0605178   -4.3335928    0.0000000 
C    -0.0605178    4.3335928    0.0000000 
H     1.4749511   -0.5192403    0.0000000 
H    -1.4749511    0.5192403    0.0000000 
H    -1.2671229   -1.9593872    0.0000000 
H     1.2671229    1.9593872    0.0000000 
H     1.6904019   -2.9802765    0.0000000 
H    -1.6904019    2.9802765    0.0000000 
H     0.6897739   -5.2295322    0.0000000 
H    -1.0258260   -4.4862980    0.0000000 
H    -0.6897739    5.2295322    0.0000000 
H     1.0258260    4.4862980    0.0000000 
