24
Energy =
O     3.8192556    0.7873105    4.4232777 
C     4.7878043    0.4517783    3.5206647 
C     5.4399654    1.4017407    2.7144659 
C     6.4275869    0.9900959    1.8100698 
C     6.7904412   -0.3630577    1.6887869 
C     7.8172597   -0.8095328    0.6714447 
C     7.1597461   -1.2945875   -0.6523094 
H     6.6673261   -0.4054839   -1.1159264 
N     6.2478450   -2.3992229   -0.3969218 
C     8.1879753   -1.7591245   -1.6991582 
O     9.3072673   -1.0009817   -1.8182777 
O     8.0134756   -2.7148742   -2.4211133 
C     6.1259188   -1.3024094    2.5053933 
C     5.1373620   -0.9070784    3.4101991 
H     3.6871134    1.7518187    4.3943643 
H     5.1775606    2.4637168    2.7988911 
H     6.9279746    1.7446618    1.1911359 
H     8.4261277   -1.6374034    1.0739078 
H     8.4945322    0.0455075    0.4687597 
H     6.1922009   -2.9692121   -1.2490469 
H     5.3111075   -2.0513367   -0.1789779 
H     9.2950364   -0.3030872   -1.1347339 
H     6.3842179   -2.3618096    2.4143074 
H     4.6258295   -1.6359482    4.0457171 
