28
Energy =
O     1.4950612   -0.4252553    0.4721145 
C     2.8191464   -0.2910275    0.1358204 
C     3.6007808   -1.4610422    0.0981118 
O     3.0697556   -2.6629395    0.3718285 
Al    4.3989928   -3.9598346    0.1907069 
Cl    2.8110724   -5.6163438    0.7731933 
O     4.8796051   -4.0780726    2.1699520 
Cl    6.1031442   -5.5724189   -0.0356999 
O     3.9264466   -4.5283121   -1.7081049 
O     5.5844371   -2.6193381   -0.2590313 
C     4.9784125   -1.4215288   -0.2445577 
C     5.5738437   -0.1842098   -0.5300495 
C     4.7885090    0.9998149   -0.4810909 
C     5.3375496    2.3298603   -0.8334312 
O     6.6884305    2.5702778   -0.6036960 
C     7.3821351    1.9735664    0.4914978 
O     4.6984536    3.2375416   -1.3383878 
C     3.4073710    0.9417822   -0.1666941 
H     1.4021445   -1.3946002    0.6140106 
H     6.6251132   -0.1581134   -0.8280127 
H     7.9362187    2.7818480    1.0043373 
H     8.1057472    1.2176336    0.1351855 
H     6.6900783    1.4892892    1.2009374 
H     2.8148873    1.8602866   -0.1629872 
H     5.6573872   -4.6696825    2.0124011 
H     3.2214129   -5.1605906   -1.4202107 
H     4.7230743   -5.1060724   -1.8095055 
H     4.1503492   -4.7141682    2.3786223 
