29
Energy =
O    -4.6296885    1.1261373   -0.3348546 
C    -3.5813520    0.5669900   -0.0523252 
C    -3.4063704   -0.6859510    0.6702218 
C    -2.1578338   -1.1664522    0.9067808 
N    -0.9977332   -0.5332370    0.4943937 
C    -1.0601001    0.6625154   -0.2221160 
O    -0.0716530    1.2825454   -0.6275202 
N    -2.3343039    1.1399766   -0.4308508 
H    -2.3844263    2.0211465   -0.9465919 
C     0.3017656   -1.1800032    0.7742556 
C     1.0657839   -1.6595333   -0.5131862 
C     2.3248400   -0.7465440   -0.5604391 
O     2.1547426    0.2808084   -1.5295754 
H     1.3671462    0.8155195   -1.2218457 
C     2.4635435   -0.2442530    0.8888495 
C     2.9695227    1.2033539    0.9795080 
O     4.1361204    1.3729833    0.1951468 
H     3.8298518    1.2837015   -0.7312794 
H     3.2307035    1.4443900    2.0232513 
H     2.1401602    1.8741195    0.6770518 
O     1.1484892   -0.3262857    1.4922951 
H     3.1457748   -0.9210326    1.4403538 
H     3.2172999   -1.3099331   -0.8703869 
O     0.3112725   -1.5892670   -1.6919608 
H     0.7317813   -0.8560255   -2.2000908 
H     1.3709892   -2.7076431   -0.3342667 
H     0.0285793   -2.0495104    1.4006264 
H    -1.9897525   -2.1001564    1.4509858 
H    -4.2945713   -1.2154888    1.0168371 
