30
Energy = -875.1049262479
O     1.1897296    2.3965154    0.0000000 
O    -1.1897296   -2.3965154    0.0000000 
N     1.4917112   -1.1426198    0.0000000 
N    -1.4917112    1.1426198    0.0000000 
C     0.7059829    0.0007357    0.0000000 
C     2.9137324    0.6262154    0.0000000 
C     2.8158876   -0.8094691    0.0000000 
C    -0.7059829   -0.0007357    0.0000000 
C     1.5353724    1.1657784    0.0000000 
C    -2.9137324   -0.6262154    0.0000000 
C    -1.5353724   -1.1657784    0.0000000 
C    -2.8158876    0.8094691    0.0000000 
C     4.1594242    1.2760430    0.0000000 
C     3.9842453   -1.5903320    0.0000000 
C    -4.1594242   -1.2760430    0.0000000 
C    -3.9842453    1.5903320    0.0000000 
C     5.3075633    0.4767122    0.0000000 
C     5.2186815   -0.9353524    0.0000000 
C    -5.3075633   -0.4767122    0.0000000 
C    -5.2186815    0.9353524    0.0000000 
H     1.0618713   -2.0725020    0.0000000 
H     4.2297174    2.3666259    0.0000000 
H     3.9168476   -2.6832130    0.0000000 
H    -4.2297174   -2.3666259    0.0000000 
H    -3.9168476    2.6832130    0.0000000 
H     6.2899879    0.9602235    0.0000000 
H     6.1377933   -1.5301853    0.0000000 
H    -6.2899879   -0.9602235    0.0000000 
H    -6.1377933    1.5301853    0.0000000 
H    -1.0618713    2.0725020    0.0000000 
