32
Energy =
O    -4.5919821    0.0718278   -0.0455961 
C    -3.3765191    0.1616864   -0.0508470 
C    -2.3323230   -0.8398436   -0.0356428 
C    -0.9915334   -0.4244811   -0.0555235 
N    -0.2409345   -1.5802703   -0.0206199 
C    -1.1649075   -2.6259573    0.0316364 
N    -2.4134365   -2.2197418    0.0147143 
H    -0.8283196   -3.6642101    0.0770850 
C     1.2146216   -1.6735496    0.0341558 
C     1.9420835   -1.0670763   -1.1688745 
C     3.2789628   -0.5688009   -0.5728986 
O     3.8606520    0.5126343   -1.2605279 
H     3.2182733    1.2538823   -1.1390570 
C     2.8952385   -0.2510982    0.9127289 
C     2.7041539    1.2475510    1.1606736 
O     1.9614033    1.8733755    0.1152548 
H     1.0747755    1.3916645    0.0476968 
H     3.6950071    1.7327076    1.1928356 
H     2.2165623    1.3847320    2.1467713 
O     1.6613679   -0.9517693    1.1770539 
H     3.6591452   -0.6335355    1.6168372 
H     4.0234949   -1.3835898   -0.5896365 
H     2.0730416   -1.7878461   -1.9909440 
H     1.3752166   -0.2018596   -1.5489382 
H     1.4366615   -2.7537249    0.1477947 
N    -0.5061731    0.8440738   -0.0806490 
C    -1.4373177    1.7881310   -0.0863054 
N    -2.7728765    1.4881028   -0.0750570 
H    -3.4656663    2.2378026   -0.1098792 
N    -1.0394238    3.0951836   -0.1483227 
H    -1.6661406    3.8262672    0.1772852 
H    -0.0409337    3.2454604    0.0171592 
