35
Energy =
C    -1.0738350   -1.4541437    1.2989938 
C    -1.6027465   -0.2541915    0.5640555 
N    -0.9209804    0.7339130    0.0734526 
O     0.4824622    0.5983765    0.3295374 
C     1.1662538   -0.2268774   -0.5263182 
O     0.6368366   -0.9716226   -1.3247631 
C     2.6401635   -0.0899109   -0.3211075 
C     3.4743639   -0.9498445   -1.0629975 
C     4.8615873   -0.8771696   -0.9213754 
C     5.3903924    0.0644592   -0.0308883 
C     4.5857280    0.9319819    0.7164133 
C     3.1985298    0.8521071    0.5668019 
H     2.5411839    1.5184080    1.1302285 
H     5.0587597    1.6477033    1.3920201 
N     6.8669151    0.1479478    0.1260556 
O     7.3055209    0.9813858    0.9197713 
O     7.5516422   -0.6224265   -0.5481206 
H     5.5411869   -1.5252768   -1.4786360 
H     3.0104124   -1.6661838   -1.7469345 
C    -3.0536069   -0.1672472    0.3718942 
N    -3.9373085   -1.0107765    0.8438267 
C    -5.1592591   -0.5173406    0.4021929 
C    -4.9236142    0.6578487   -0.3496061 
C    -5.9328297    1.4137606   -0.9445806 
C    -7.2363967    0.9331489   -0.7521964 
C    -7.5006744   -0.2398454   -0.0037649 
C    -6.4735521   -0.9844623    0.5851620 
H    -6.6711518   -1.8906249    1.1638078 
H    -8.5383667   -0.5679463    0.1134122 
H    -8.0747850    1.4811604   -1.1940838 
H    -5.7197359    2.3173674   -1.5207640 
O    -3.5700250    0.8761822   -0.3649875 
H    -0.7332244   -2.2004463    0.5598271 
H    -0.2108022   -1.1666959    1.9193676 
H    -1.8688310   -1.9006424    1.9122202 
