36
Energy =
C    -1.9286377    2.4125517   -0.0653221 
C    -1.2003876    1.0860996   -0.0623770 
C    -1.9046422   -0.1504952   -0.0845368 
N    -3.2883688   -0.1604421   -0.0917121 
C    -4.0379088    1.0805522   -0.2844126 
C    -3.3636462    2.2447444    0.4382398 
C     0.1988760    1.0597981   -0.0368964 
C     0.9477946   -0.1465377   -0.0188186 
C     0.2159915   -1.3592023   -0.0361454 
C    -1.1708174   -1.3860911   -0.0768440 
C     2.3814504   -0.0231734    0.0155246 
C     2.9883249    1.2055027    0.0289536 
C     2.2214296    2.4394142    0.0102357 
O     0.8207420    2.2775367   -0.0270932 
C    -4.0380208   -1.4063831   -0.2404117 
C    -3.3219439   -2.5685633    0.4433474 
C    -1.9119034   -2.7069643   -0.1349307 
C     3.2409378   -1.2700884    0.0383829 
O     2.6539124    3.5710573    0.0225002 
H    -5.0353586   -1.2456233    0.2057449 
H    -4.1994428   -1.6393917   -1.3162368 
H     0.7543381   -2.3103991   -0.0243120 
H     4.0736859    1.3113466    0.0559103 
F     3.0203383   -2.0431655   -1.0555092 
F     4.5596828   -0.9877729    0.0686735 
F     2.9692737   -2.0385952    1.1239279 
H    -4.1390897    1.3090404   -1.3681511 
H    -5.0565521    0.9137285    0.1068608 
H    -1.3374050   -3.4815067    0.4015528 
H    -1.9850919   -3.0449412   -1.1883142 
H    -3.2690383   -2.3729127    1.5300027 
H    -3.9035456   -3.4947963    0.2974589 
H    -3.9466221    3.1672863    0.2764755 
H    -3.3614499    2.0374957    1.5239843 
H    -1.3717734    3.1382771    0.5495875 
H    -1.9346678    2.8299446   -1.0918135 
