36
Energy =
C    -0.7707762   -0.8109348    6.9104352 
C     0.2743625   -0.1149461    6.2154626 
C     0.9531942    0.9748311    6.7675147 
C     0.5973206    1.3831548    8.0622517 
C    -0.4381197    0.7052878    8.7673181 
C    -1.1160935   -0.3778751    8.2108521 
C    -1.2385280   -1.8410902    6.0339500 
C    -0.4942936   -1.7676369    4.8565842 
H     1.7413761    1.5221221    6.2428931 
H    -0.7372522    1.0674062    9.7561133 
H    -1.9172854   -0.8752838    8.7671631 
H    -2.0080793   -2.5817100    6.2495691 
H     1.0140566   -0.3841917    4.2366157 
C    -0.5577521   -2.5898955    3.6497616 
C     0.5228084   -2.6559257    2.7412162 
C    -1.7127288   -3.3578244    3.3611823 
C     0.4463850   -3.4407812    1.5865268 
H     1.4539217   -2.1199656    2.9555364 
C    -1.7839529   -4.1456754    2.2155670 
H    -2.5687095   -3.3134094    4.0413078 
C    -0.7109788   -4.1906277    1.3005222 
H     1.3170611   -3.5004580    0.9251817 
H    -2.6718712   -4.7425548    1.9889798 
N     0.4258629   -0.7308533    4.9880728 
C     1.3277009    2.5466245    8.6518185 
N     1.1827284    2.7018318   10.0293898 
H     1.8105840    3.3737554   10.4686125 
H     1.0592639    1.8496258   10.5754661 
C    -0.8365242   -5.0454771    0.0815816 
N     0.0985686   -4.7904360   -0.9199367 
H    -0.0743659   -5.2459874   -1.8151776 
H     0.4161131   -3.8261829   -1.0165740 
N     1.9866405    3.3353726    7.8667076 
H     2.4698651    4.0693382    8.4072554 
N    -1.7403442   -5.9687714    0.0638619 
H    -1.7407323   -6.4668759   -0.8396267 
