37
Energy =
C     5.5394724   -2.5591905   -0.0634728 
C     5.9762706   -1.2709211   -0.2936386 
C     4.9095974   -0.3291571   -0.3456906 
C     3.6577102   -0.9047476   -0.1544112 
S     3.8159857   -2.6330194    0.0996626 
H     6.1294265   -3.4729897    0.0222501 
H     7.0294047   -1.0093923   -0.4247179 
H     5.0433524    0.7408001   -0.5281874 
C     2.3557407   -0.2726887   -0.1415214 
C     1.0984443   -0.8509259   -0.1248663 
S     2.2252562    1.4765825   -0.1463553 
C     0.0116846    0.0834998   -0.1433928 
H     0.9576775   -1.9347183   -0.1429845 
C     0.4732652    1.4148189   -0.1692101 
C    -0.2416680    2.6738263   -0.1920206 
C     0.1985621    3.8899672   -0.7116301 
S    -1.8155541    2.8849292    0.5664363 
C    -0.7206479    4.9579197   -0.5173902 
H     1.1536455    3.9874541   -1.2350755 
C    -1.8614306    4.5650876    0.1526350 
H    -0.5531767    5.9793279   -0.8687975 
H    -2.7331857    5.1641216    0.4209030 
C    -1.3951026   -0.2793614   -0.1899854 
C    -1.9046654   -1.5212214    0.0341560 
H    -2.0857634    0.5353079   -0.4346662 
H    -1.2177416   -2.3341328    0.3032312 
C    -3.3157764   -1.9031703   -0.0307410 
C    -3.6768165   -3.2448613    0.2399215 
C    -4.3530268   -0.9915875   -0.3495343 
C    -5.0118239   -3.6618861    0.1944963 
H    -2.8891190   -3.9650798    0.4896268 
C    -5.6853641   -1.4081524   -0.3930395 
H    -4.1118215    0.0545938   -0.5630936 
C    -6.0243499   -2.7451452   -0.1224178 
H    -5.2631057   -4.7064404    0.4076723 
H    -6.4699988   -0.6851640   -0.6410894 
H    -7.0703186   -3.0671213   -0.1592461 
