38
Energy =
S    -2.0471711    2.9624433   -0.3925448 
C    -1.1375057    2.4605987    1.1315907 
C    -0.0908710    1.3542820    0.9306597 
N     0.4865720    0.8528086    2.1883686 
H     0.8730977    1.6285088    2.7382804 
H    -0.2477618    0.4171918    2.7562559 
C     1.0536270    1.8428108    0.0179710 
O     1.1452921    3.0261854   -0.3233769 
N     1.9809510    0.9232179   -0.3905600 
C     2.0968617   -0.4822530   -0.0500254 
C     3.5764230   -0.7999077    0.1104839 
O     4.4902619   -0.0930690   -0.2686033 
O     3.7642486   -2.0109185    0.6870414 
H     4.7339828   -2.1570151    0.7086958 
C     1.4777018   -1.4300898   -1.1386245 
C     0.0033819   -1.2110973   -1.2502179 
C    -0.9992215   -1.7108774   -0.3356220 
C    -2.2342470   -1.0688816   -0.6738745 
N    -1.9870343   -0.2518204   -1.7615809 
C    -0.6419904   -0.3101944   -2.0803279 
H    -0.2344437    0.3192117   -2.8715079 
H    -2.6012784    0.5031500   -2.0574233 
C    -3.4122741   -1.2778844    0.0623068 
C    -3.3438496   -2.1483665    1.1541339 
C    -2.1340681   -2.7971214    1.5042247 
C    -0.9634167   -2.5874096    0.7712064 
H    -0.0313121   -3.0880469    1.0548627 
H    -2.1205994   -3.4736217    2.3652965 
H    -4.2433370   -2.3314712    1.7512860 
H    -4.3455644   -0.7715591   -0.2035148 
H     1.9846184   -1.2300785   -2.0986727 
H     1.7063829   -2.4701238   -0.8495375 
H     1.5945778   -0.6506230    0.9185205 
H     2.7745945    1.3187151   -0.9027872 
H    -0.5764762    0.4953897    0.4435755 
H    -0.6696981    3.3613460    1.5628061 
H    -1.9158702    2.0968748    1.8235137 
H    -0.9433200    3.4919621   -0.9790486 
