40
Energy = -1330.287864825
O    -2.2921276    5.7032996    0.0000000 
O    -2.2921276   -5.7032996    0.0000000 
O     2.2921276    5.7032996    0.0000000 
O     2.2921276   -5.7032996    0.0000000 
N     0.0000000    5.6218890    0.0000000 
N     0.0000000   -5.6218890    0.0000000 
C     0.0000000    1.4199611    0.0000000 
C    -0.0000000   -1.4199611    0.0000000 
C    -1.2516185    0.7224552    0.0000000 
C    -1.2516185   -0.7224552    0.0000000 
C     1.2516185    0.7224552    0.0000000 
C     1.2516185   -0.7224552    0.0000000 
C     0.0000000    2.8798916    0.0000000 
C     0.0000000   -2.8798916    0.0000000 
C    -1.2497260    3.5604414    0.0000000 
C     1.2497260    3.5604414    0.0000000 
C    -1.2497260   -3.5604414    0.0000000 
C     1.2497260   -3.5604414    0.0000000 
C    -2.4731755    1.4708961    0.0000000 
C    -2.4731755   -1.4708961    0.0000000 
C     2.4731755    1.4708961    0.0000000 
C     2.4731755   -1.4708961    0.0000000 
C    -2.4779956    2.8450655    0.0000000 
C     2.4779956    2.8450655    0.0000000 
C    -2.4779956   -2.8450655    0.0000000 
C     2.4779956   -2.8450655    0.0000000 
C    -1.2350632    5.0095975    0.0000000 
C    -1.2350632   -5.0095975    0.0000000 
C     1.2350632    5.0095975    0.0000000 
C     1.2350632   -5.0095975    0.0000000 
H    -3.4310371    0.9492117    0.0000000 
H    -3.4310371   -0.9492117    0.0000000 
H     3.4310371    0.9492117    0.0000000 
H     3.4310371   -0.9492117    0.0000000 
H    -3.4154037    3.4055628    0.0000000 
H     3.4154037    3.4055628    0.0000000 
H    -3.4154037   -3.4055628    0.0000000 
H     3.4154037   -3.4055628    0.0000000 
H     0.0000000    6.6423184    0.0000000 
H     0.0000000   -6.6423184    0.0000000 
