42
Energy =
Br    1.0957733    0.2914544   -0.4302065 
C     2.9728695    0.1233629   -0.1221024 
C     3.6815884    1.2098747    0.4089025 
C     5.0604582    1.0672858    0.6187227 
C     5.7129621   -0.1307909    0.3057557 
C     4.9965783   -1.2230300   -0.2291067 
C     5.6791193   -2.5000659   -0.5664933 
C     6.9930272   -2.4984424   -1.0729174 
C     7.6600313   -3.6992920   -1.3828252 
C     9.0416094   -3.6804371   -1.9319991 
C     9.4472167   -2.6518741   -2.8094036 
C    10.7518407   -2.6407273   -3.3151226 
Br   11.2720586   -1.2429890   -4.5075846 
C    11.6806668   -3.6339842   -2.9752589 
C    11.2750380   -4.6559097   -2.1053160 
C     9.9745851   -4.6824126   -1.5884799 
C     6.9863770   -4.9189159   -1.1771392 
C     5.6721189   -4.9534159   -0.6717697 
C     4.9738343   -6.2486260   -0.4597003 
C     5.6948164   -7.3857972   -0.0361503 
C     5.0300159   -8.6015071    0.1580283 
Br    6.0284271  -10.1216090    0.7406732 
C     3.6503821   -8.7269317   -0.0554416 
C     2.9356312   -7.5959231   -0.4745490 
C     3.5844025   -6.3721830   -0.6755763 
C     5.0316690   -3.7355440   -0.3710980 
C     3.6084813   -1.0813281   -0.4419047 
H     3.1654667    2.1422363    0.6517899 
H     5.6282588    1.9026437    1.0415508 
H     6.7847469   -0.2318646    0.5018334 
H     7.5059405   -1.5445902   -1.2287935 
H     8.7395696   -1.8776538   -3.1170678 
H    12.6948661   -3.6061287   -3.3818630 
H    11.9901689   -5.4352982   -1.8221909 
H     9.6847591   -5.4732788   -0.8898876 
H     7.4746966   -5.8550306   -1.4644652 
H     6.7667230   -7.3157012    0.1660085 
H     3.1504286   -9.6860284    0.1021253 
H     1.8586868   -7.6779153   -0.6548023 
H     3.0139299   -5.5079526   -1.0291787 
H     4.0310852   -3.7519089    0.0715650 
H     3.0311147   -1.8995604   -0.8799906 
