44
Energy = -1055.362747241
N     0.0000000    0.0000000    0.6626294 
C     0.0000000    0.0000000   -0.7643224 
C     0.0000000   -1.1370077    1.4765393 
C     0.0000000    1.1370077    1.4765393 
C     0.0000000   -0.7263187    2.8443331 
C     0.0000000    0.7263187    2.8443331 
C    -1.2361814    0.0000000   -1.4507818 
C     1.2361814    0.0000000   -1.4507818 
C    -1.2297860    0.0000000   -2.9019481 
C     1.2297860    0.0000000   -2.9019481 
C     0.0000000   -2.4872542    1.0990414 
C     0.0000000    2.4872542    1.0990414 
C     0.0000000    0.0000000   -3.5851867 
C     0.0000000   -1.7086053    3.8519752 
C     0.0000000    1.7086053    3.8519752 
C    -2.4920688    0.0000000   -0.7630384 
C     2.4920688    0.0000000   -0.7630384 
C    -2.4854134    0.0000000   -3.5927484 
C     2.4854134    0.0000000   -3.5927484 
C     0.0000000   -3.4409750    2.1241555 
C     0.0000000    3.4409750    2.1241555 
C     0.0000000   -3.0590670    3.4847011 
C     0.0000000    3.0590670    3.4847011 
C    -3.6774347    0.0000000   -1.4686003 
C     3.6774347    0.0000000   -1.4686003 
C    -3.6760443    0.0000000   -2.8971438 
C     3.6760443    0.0000000   -2.8971438 
H     0.0000000   -2.7761583    0.0439514 
H     0.0000000    2.7761583    0.0439514 
H     0.0000000    0.0000000   -4.6812646 
H     0.0000000   -1.4190767    4.9080727 
H     0.0000000    1.4190767    4.9080727 
H    -2.4908289    0.0000000    0.3306219 
H     2.4908289    0.0000000    0.3306219 
H    -2.4785136    0.0000000   -4.6882300 
H     2.4785136    0.0000000   -4.6882300 
H     0.0000000   -4.5049683    1.8646967 
H     0.0000000    4.5049683    1.8646967 
H     0.0000000   -3.8324384    4.2596812 
H     0.0000000    3.8324384    4.2596812 
H    -4.6314975    0.0000000   -0.9313363 
H     4.6314975    0.0000000   -0.9313363 
H    -4.6284531    0.0000000   -3.4373992 
H     4.6284531    0.0000000   -3.4373992 
