44
Energy =
C     5.9036592   -1.1931233    1.8876171 
O     5.7231114   -1.2573652    0.4750554 
C     4.4710315   -1.1231241   -0.0276395 
C     4.3708997   -1.2070172   -1.4417339 
C     3.1292772   -1.0868258   -2.0414208 
C     1.9555144   -0.8507361   -1.2784836 
C     2.0739946   -0.7401030    0.1525550 
C     3.3306911   -0.9074698    0.7618302 
H     3.3759449   -0.8345722    1.8496335 
O     1.0081237   -0.5305583    0.9400316 
B    -0.1321696    0.1478238    0.3003721 
N    -0.3606450   -0.5591980   -1.0919584 
C     0.6409198   -0.9298661   -1.8496745 
H     0.4422666   -1.3803606   -2.8295729 
N    -1.6848235   -0.8685402   -1.2879034 
C    -2.2371975   -0.6536667   -0.0996940 
C    -3.6603854   -0.8980419    0.1511158 
C    -4.4928885   -1.3809488   -0.8819030 
C    -5.8493985   -1.6062722   -0.6344216 
C    -6.3854782   -1.3553383    0.6401739 
C    -5.5598272   -0.8762381    1.6688154 
C    -4.2005975   -0.6460156    1.4290855 
H    -3.5421389   -0.2687105    2.2160503 
H    -5.9785216   -0.6794949    2.6612121 
H    -7.4492913   -1.5333654    0.8304040 
H    -6.4947848   -1.9799393   -1.4361696 
H    -4.0553579   -1.5712057   -1.8659192 
O    -1.4673944   -0.2258934    0.8968256 
C     0.0686077    1.7373594    0.1676379 
C     1.0139046    2.4219684    0.9591865 
C     1.1808136    3.8115172    0.8620872 
C     0.4003073    4.5498015   -0.0391873 
C    -0.5449771    3.8901147   -0.8399331 
C    -0.7039732    2.5016575   -0.7343381 
H    -1.4430358    2.0016679   -1.3735731 
H    -1.1560323    4.4604952   -1.5488110 
H     0.5290978    5.6350259   -0.1198792 
H     1.9223765    4.3204589    1.4886364 
H     1.6293265    1.8517960    1.6649887 
H     3.0384070   -1.1790480   -3.1291384 
H     5.2812827   -1.3776654   -2.0213851 
H     6.9809265   -1.3291895    2.0595884 
H     5.3413254   -1.9960943    2.3995950 
H     5.5852826   -0.2118736    2.2863880 
