46
Energy =
C    -0.0754690    2.6983768   -1.3936665 
C    -0.2432989    1.3391300   -1.7730012 
C    -0.5813978    1.0675564   -3.1007712 
C    -0.7225130    2.1340279   -4.0086837 
C    -0.5466764    3.4766197   -3.6091116 
C    -0.2196968    3.7793965   -2.2859422 
H    -0.7273939    0.0364764   -3.4377436 
H    -0.9723931    1.9199519   -5.0537080 
H    -0.6676709    4.2801700   -4.3421957 
H    -0.0791546    4.8069417   -1.9389062 
C    -1.5013855   -0.1939782   -0.0830729 
C    -2.4548324    0.3245276    0.8023881 
C    -1.9165162   -1.3135165   -0.8212522 
C    -3.7192219   -0.2540422    0.9923696 
C    -3.1630547   -1.9264408   -0.6655521 
C    -4.0752202   -1.3871385    0.2528083 
C     1.2392911   -0.5279191   -0.4067919 
C     1.2792061   -1.7990298    0.1860719 
C     2.4423179   -0.1130259   -1.0006017 
C     2.4105264   -2.6254565    0.1652574 
C     3.5988972   -0.9015413   -1.0464257 
C     3.5792115   -2.1729154   -0.4590843 
F     2.5286990    1.1157678   -1.5523416 
F     4.7160858   -0.4512886   -1.6313461 
F     4.6701391   -2.9445073   -0.4860051 
F     2.3863230   -3.8333186    0.7428531 
F     0.2031824   -2.2911795    0.8409585 
F    -3.4964696   -3.0052060   -1.3852706 
F    -5.2772071   -1.9495748    0.4163095 
F    -4.5882658    0.2782475    1.8615889 
F    -2.1961953    1.4381747    1.5227478 
N     0.2979672    1.7270863    0.5308077 
N     0.2720794    2.8681071   -0.0617457 
B    -0.0512304    0.4674558   -0.4333776 
F    -1.0774230   -1.8535473   -1.7343908 
C     0.7113551    1.6695593    1.8836468 
C     1.2921767    2.7925192    2.5068949 
C     0.5367362    0.4650782    2.5923440 
C     1.6945142    2.7016335    3.8404562 
H     1.4194060    3.7110325    1.9299808 
C     0.9436410    0.3903750    3.9275400 
H     0.0744161   -0.3977625    2.1092973 
C     1.5238431    1.5029547    4.5549943 
H     2.1503639    3.5697204    4.3271418 
H     0.8042086   -0.5439031    4.4800508 
H     1.8449421    1.4375700    5.5994497 
