48
Energy =
Cl   -4.7988562   -1.6422628    0.6872615 
C    -3.3471045   -0.6699188    0.5111932 
C    -2.1495268   -1.1297479    1.1145869 
C    -0.9942665   -0.3768991    0.9680033 
C    -0.9838413    0.8325364    0.2242942 
C    -2.2193452    1.3181283   -0.3304263 
N    -2.3367463    2.5127093   -0.9861891 
C    -1.2295749    3.2388103   -1.0823731 
C     0.0472614    2.8612491   -0.6121805 
C     0.2165238    1.6161454    0.0180005 
N     1.4247217    1.1264775    0.4358464 
H     1.5327010    0.0908897    0.4606244 
C     2.6748120    1.8720314    0.3104597 
C     2.7764963    2.9523839    1.4007569 
H     1.8951651    3.6147389    1.3845098 
H     2.8275217    2.4798519    2.3972443 
H     3.6788505    3.5721533    1.2559297 
C     3.8710181    0.9066339    0.3784251 
C     3.9822849   -0.1243689   -0.7692944 
C     3.4836480   -1.5380981   -0.4331057 
N     2.0302169   -1.6353010   -0.2147555 
C     1.6522392   -2.8029993    0.6040752 
C     2.0120088   -2.6385893    2.0824032 
H     1.5388400   -1.7362883    2.5076989 
H     3.1012827   -2.5523387    2.2380419 
H     1.6653750   -3.5155027    2.6559278 
H     2.1064490   -3.7402023    0.2116697 
H     0.5583090   -2.9199350    0.5072927 
C     1.2461828   -1.5427311   -1.4682123 
C     1.4150801   -2.6917127   -2.4733079 
H     0.7789853   -2.5033582   -3.3552440 
H     1.1083599   -3.6604575   -2.0418910 
H     2.4556911   -2.7891501   -2.8290403 
H     1.5058859   -0.5838292   -1.9501774 
H     0.1849029   -1.4615787   -1.1755598 
H     3.8161198   -2.2423083   -1.2266923 
H     3.9827337   -1.8648381    0.4949580 
H     5.0451053   -0.2299805   -1.0526162 
H     3.4728425    0.2595050   -1.6735163 
H     4.7800365    1.5328855    0.3885009 
H     3.8493403    0.3838669    1.3553236 
H     2.7056994    2.3693013   -0.6835621 
H     0.8942055    3.5303078   -0.7824378 
H    -1.3311198    4.2074463   -1.5940804 
C    -3.3957990    0.5254685   -0.1849037 
H    -4.3227941    0.8976082   -0.6262218 
H    -0.0748296   -0.7115011    1.4554122 
H    -2.1558931   -2.0544952    1.6974890 
