49
Energy =
N    -3.4508646    0.0552860   -0.0081725 
C    -4.3127109   -1.0742720    0.0834674 
C    -5.4962249   -1.1253848   -0.6810889 
C    -3.9984104   -2.1452031    0.9451358 
C    -6.3504562   -2.2290565   -0.5778868 
H    -5.7381166   -0.2948190   -1.3508498 
C    -4.8506279   -3.2523340    1.0269325 
H    -3.0858486   -2.1003872    1.5470303 
C    -6.0320200   -3.3004258    0.2708366 
H    -7.2665804   -2.2571432   -1.1774192 
H    -4.5959765   -4.0773431    1.7007444 
H    -6.6995405   -4.1648473    0.3436334 
C    -4.0200333    1.3596547   -0.0512032 
C    -3.5130201    2.3321892   -0.9373996 
C    -5.1060866    1.6858764    0.7866408 
C    -4.0783594    3.6119867   -0.9716195 
H    -2.6774845    2.0758870   -1.5956026 
C    -5.6755426    2.9630287    0.7312030 
H    -5.4975063    0.9312924    1.4753314 
C    -5.1637470    3.9347410   -0.1424712 
H    -3.6762247    4.3582608   -1.6650613 
H    -6.5185850    3.2041579    1.3874452 
H    -5.6078233    4.9345705   -0.1779933 
C    -2.0512051   -0.1162970   -0.0524781 
C    -1.1855545    0.8299174    0.5419917 
C    -1.4794876   -1.2389473   -0.6957022 
C     0.1954704    0.6559454    0.4898187 
H    -1.6075620    1.6990983    1.0539914 
C    -0.0979279   -1.4084571   -0.7357163 
H    -2.1325716   -1.9724935   -1.1765627 
C     0.7797041   -0.4667046   -0.1441004 
H     0.8416672    1.3952647    0.9762711 
H     0.3109753   -2.2744288   -1.2648618 
C     2.2263024   -0.6568622   -0.1893611 
C     2.9628451   -1.7910008   -0.5308257 
S     3.3502868    0.6228215    0.2123203 
H     2.5149565   -2.7480484   -0.8115555 
C     4.6987871   -0.4758971   -0.1061100 
N     4.3178768   -1.6807438   -0.4825217 
C     6.0922395   -0.0571290    0.0426646 
C     7.1333315   -0.9685787   -0.2373123 
C     6.4604488    1.2390007    0.4594802 
C     8.4573219   -0.5445103   -0.0889549 
H     6.8864253   -1.9827400   -0.5628999 
C     7.8192530    1.5542378    0.5731327 
H     5.7000546    1.9928398    0.6932222 
H     9.2806669   -1.2398358   -0.3020721 
H     8.1216275    2.5596327    0.8965104 
N     8.8139474    0.6908428    0.3079285 
