52
Energy =
C    -3.4632677   -1.2013004   -1.9723869 
C    -2.3078930   -0.9583200   -1.0014631 
C    -2.6696039   -0.0190330    0.1253133 
O    -1.6962602    0.4553662    0.9493199 
C    -0.6718397   -0.3401921    1.5943712 
H    -0.0685420    0.4254931    2.1092874 
C     0.2499549   -1.1669707    0.6988025 
O     0.7151495   -0.3326698   -0.3694598 
C     1.4479915   -0.8548760   -1.4081827 
C     1.7944587   -2.3380568   -1.3873197 
C     0.6825219   -3.2211884   -1.9960421 
O     1.7606770   -0.1093065   -2.3099378 
C    -1.3933704   -1.2260401    2.6222872 
O    -2.4554810   -1.9062040    1.9698337 
P    -2.2773603   -3.6091229    1.7321345 
O    -3.8871501   -3.8318783    1.2804397 
C    -4.8541051   -3.3284523    2.1769651 
C    -5.4172169   -2.0559814    1.5205252 
N    -5.9522545   -0.9814725    2.4717533 
C    -6.9371978   -1.5718243    3.4377933 
C    -4.8053554   -0.3345778    3.2181830 
C    -6.6166163    0.0805582    1.6283109 
O    -1.4621885   -3.8266788    0.4791937 
O    -2.0159119   -4.1899848    3.0948650 
O    -3.7957018    0.4519200    0.2707965 
H    -3.1215570   -1.8422425   -2.8020377 
H    -3.8504132   -0.2572476   -2.3910878 
H    -4.2964667   -1.7218915   -1.4707139 
H    -1.4286319   -0.5277237   -1.5113676 
H    -1.9828968   -1.9222526   -0.5643595 
H    -0.2571380   -2.0768729    0.3377048 
H     1.0986672   -1.4857503    1.3347289 
H     2.7104705   -2.4228221   -1.9936725 
H     2.0292635   -2.6849191   -0.3658876 
H     0.3573794   -2.8111660   -2.9678760 
H    -0.1862834   -3.3209229   -1.3240474 
H     1.0771270   -4.2368183   -2.1682927 
H    -1.8192160   -0.5777839    3.4113355 
H    -0.7038033   -1.9439654    3.1052521 
H    -5.6446937   -4.0888387    2.3162221 
H    -4.3978220   -3.1267656    3.1665923 
H    -6.2471094   -2.2897351    0.8347666 
H    -4.6123315   -1.5610297    0.9644346 
H    -6.4137516   -2.2907101    4.0830008 
H    -7.7284686   -2.0806074    2.8680967 
H    -7.3666086   -0.7622569    4.0460259 
H    -4.2222559   -1.1205058    3.7136949 
H    -5.2336487    0.3671159    3.9492397 
H    -4.1848261    0.1857183    2.4729349 
H    -7.4795599   -0.3704088    1.1174949 
H    -5.8666822    0.4360867    0.9056051 
H    -6.9456800    0.8956196    2.2898996 
