57
Energy =
O    -2.1791890   -2.9417690   -1.2787308 
N    -1.0643511   -1.2296400   -0.1228002 
N    -2.7542352   -0.0712267    0.8475820 
N     0.8896486    0.5008986    0.7429468 
N     4.5694614   -1.7567718   -1.0214233 
N    -1.8475570    3.4057178   -0.3710238 
N    -3.7741109    2.3688356   -1.1836521 
N    -1.7048228    1.5482214   -1.8913515 
C    -4.7519083   -1.3991676    0.0364609 
C    -3.2721197   -1.1198128    0.1335416 
C    -1.4241946   -0.1246929    0.6865130 
C    -2.2349170   -1.8478908   -0.4725930 
C    -0.3695291    0.7442296    1.0857440 
C    -5.1121685   -2.8011233    0.5861149 
C    -0.6862082    1.9943008    1.8711702 
C     1.2155253   -0.6072957   -0.0102907 
C     0.2442925   -1.4802803   -0.4787960 
C    -5.2643783   -1.2147113   -1.4082359 
C     2.6368114   -0.8072805   -0.3140461 
C    -0.0495353    3.2694813    1.2808322 
C     3.7172673    0.1463923   -0.1306875 
C    -4.6954617   -3.0228784    2.0424802 
C     4.9145037   -0.4857813   -0.5913111 
C     3.2157523   -1.9522394   -0.8534592 
C    -0.4131244    3.4987501   -0.2022605 
C     3.7975415    1.4669005    0.3657247 
C     6.1656970    0.1519892   -0.5718225 
C     5.0394246    2.1045358    0.3852074 
C     6.2108205    1.4574832   -0.0770073 
C    -2.3672718    2.4706634   -1.0890701 
H    -5.2401276   -0.6483499    0.6836170 
H    -4.6465395   -3.5810223   -0.0568001 
H    -6.2024560   -2.9509492    0.4742376 
H    -0.3175190    1.8537741    2.9052185 
H    -1.7802807    2.1080154    1.9160883 
H     0.4174220   -2.3410436   -1.1261654 
H    -4.7640835   -1.9187025   -2.0992049 
H    -6.3514083   -1.3990390   -1.4677998 
H    -5.0678423   -0.1930992   -1.7757687 
H    -0.4053095    4.1278646    1.8780629 
H     1.0497951    3.2267232    1.3807079 
H    -5.1862299   -2.2883021    2.7049625 
H    -4.9733179   -4.0337663    2.3874422 
H    -3.6050039   -2.9036369    2.1675738 
H     2.7631003   -2.9078050   -1.1188585 
H     0.1764553    2.7853591   -0.8219538 
H    -0.0669687    4.5092742   -0.4952612 
H     5.2180845   -2.4504517   -1.3803265 
H    -3.0353512   -3.4034357   -1.2243306 
H     2.8918234    1.9532683    0.7317936 
H     7.0688139   -0.3531578   -0.9301711 
H     5.1126953    3.1275178    0.7692491 
H     7.1687234    1.9873394   -0.0455772 
H    -4.1655880    3.1109208   -0.5961739 
H    -4.0662984    1.4727491   -0.7746121 
H    -0.7403971    1.3329100   -1.6474361 
H    -2.2452549    0.7477073   -2.2108695 
