70
Energy =
S    -5.8008836   -3.5146324   -1.4943524 
O    -3.3045417    2.7436632    0.2354339 
O     6.6843370   -0.8836393    0.8565827 
O     3.8696744    2.5748579   -0.1868381 
O     2.2015636   -1.6011068    1.4287765 
O    -6.0651473   -5.0441862   -0.8969312 
O    -4.5299642   -3.5210007   -2.2208684 
O    -7.0604417   -3.0655133   -2.1150582 
N    -4.6082464    1.0119250    0.7894396 
N     5.2772846    0.8630987    0.3779245 
N     4.4390036   -1.2057215    1.2003118 
C    -5.0191488   -0.3564436    1.0679733 
C     6.4331887    1.6700245   -0.0519727 
C     4.7154688   -2.5785754    1.6591456 
C    -5.1499772   -1.1846103   -0.2209763 
C     6.7797118    1.4397709   -1.5275034 
C     4.7500347   -3.5832071    0.5018100 
C    -5.4601698    2.0711000    0.4599737 
C     5.5416108   -0.4383559    0.8119413 
C    -3.2961523    1.4262061    0.6185305 
C    -5.5568666   -2.6289591    0.0716809 
C     2.8622537    0.5621030    0.6255425 
C     3.9945143    1.4262107    0.2411369 
C     3.0891770   -0.8053903    1.1076452 
C    -4.6221747    3.1492846    0.1290670 
C     7.9787630    2.2810145   -1.9843569 
C     5.0323688   -5.0129938    0.9818413 
C    -6.8508720    2.2024456    0.4222321 
C    -2.1351607    0.7014847    0.7862816 
C     1.5954460    1.1171760    0.4911293 
C    -5.1045853    4.3967270   -0.2397993 
C     8.3363195    2.0596067   -3.4585519 
C     5.0689823   -6.0323368   -0.1625001 
C    -7.3574311    3.4624366    0.0479380 
C    -0.8378067    1.2336377    0.5701510 
C    -6.5078868    4.5345767   -0.2735159 
C     0.3366024    0.5227407    0.7519306 
H    -5.9795162   -0.3116949    1.6090541 
H    -4.2804785   -0.8024267    1.7548729 
H     7.2799796    1.3902939    0.5922681 
H     6.1557210    2.7206321    0.1195951 
H     3.9128649   -2.8356696    2.3663201 
H     5.6852514   -2.5542556    2.1778867 
H    -4.1890913   -1.1793064   -0.7631788 
H    -5.9048288   -0.7178702   -0.8783310 
H     5.8939058    1.6871794   -2.1417429 
H     6.9988769    0.3660324   -1.6765626 
H     5.5298252   -3.2695143   -0.2168685 
H     3.7782618   -3.5503267   -0.0249878 
H    -6.5157679   -2.7071658    0.6101431 
H    -4.7808722   -3.1897531    0.6183651 
H     8.8547070    2.0410607   -1.3504647 
H     7.7587445    3.3528517   -1.8128253 
H     5.9974087   -5.0307952    1.5250825 
H     4.2595180   -5.3094173    1.7178849 
H    -7.5185646    1.3713283    0.6643712 
H    -2.2339539   -0.3426457    1.0978078 
H     1.6031953    2.1541766    0.1268861 
H    -4.4298082    5.2181890   -0.4913806 
H     7.4876818    2.3218900   -4.1163430 
H     9.2013573    2.6754201   -3.7616310 
H     8.5911514    1.0013060   -3.6502084 
H     5.8546908   -5.7765091   -0.8964975 
H     5.2742567   -7.0512950    0.2103856 
H     4.1048289   -6.0576809   -0.7023357 
H    -8.4413751    3.6054770    0.0045310 
H    -0.7713388    2.2770698    0.2338468 
H    -6.9408586    5.4973690   -0.5605175 
H     0.3135373   -0.5152556    1.0973345 
H    -6.9659587   -5.2881124   -1.1992557 
