72
Energy =
O     4.4796468   -0.0007120    0.0001418 
C     3.2288296   -0.0005085    0.0001010 
C     2.4485180   -1.1391774    0.5391363 
C     1.0607499   -1.0953626    0.5431161 
C     0.3551852   -0.0000480   -0.0000059 
C     1.0611423    1.0950463   -0.5430649 
C     2.4489237    1.1384176   -0.5389785 
C     3.1359904    2.3423660   -1.0548389 
C     2.5383241    3.6153460   -0.8866687 
C     3.1468962    4.7733535   -1.3825562 
C     4.3757901    4.6904697   -2.0547283 
C     4.9870707    3.4379359   -2.2174550 
C     4.3824990    2.2765257   -1.7214977 
H     4.8689898    1.3067401   -1.8356515 
H     5.9488968    3.3633410   -2.7370844 
H     4.8578542    5.5957885   -2.4397941 
H     2.6662701    5.7463526   -1.2297158 
H     1.5994031    3.6976307   -0.3289270 
H     0.5003759    1.9140057   -1.0019608 
N    -1.0678149    0.0001754   -0.0000689 
C    -1.7752397   -1.1227082   -0.4426245 
C    -3.1651307   -1.1249881   -0.4032610 
C    -3.9177866    0.0006286   -0.0002013 
C    -3.1648091    1.1260096    0.4029210 
C    -1.7749238    1.1232822    0.4424222 
C    -1.0566646    2.2723871    1.0520140 
C    -1.3783313    3.5812011    0.6385651 
C    -0.7534128    4.6889603    1.2285170 
C     0.1958694    4.5022922    2.2413680 
C     0.5126999    3.2013520    2.6670144 
C    -0.1024183    2.0937769    2.0787497 
H     0.1646123    1.0855651    2.4071910 
H     1.2526228    3.0478706    3.4586722 
H     0.6951193    5.3646436    2.6944213 
H    -1.0017302    5.6981274    0.8842330 
H    -2.1011307    3.7276313   -0.1711286 
H    -3.6662175    2.0113575    0.8002294 
C    -5.3908652    0.0008587   -0.0002544 
C    -6.1201803   -1.2075469    0.1076045 
C    -7.5184170   -1.2061548    0.1076603 
C    -8.2254422    0.0013057   -0.0003255 
C    -7.5180312    1.2085435   -0.1082758 
C    -6.1197941    1.2094938   -0.1081580 
H    -5.5849727    2.1575792   -0.2227824 
H    -8.0597651    2.1554576   -0.2023589 
H    -9.3201893    0.0014776   -0.0003571 
H    -8.0604542   -2.1528969    0.2017282 
H    -5.5856633   -2.1558023    0.2222403 
H    -3.6667842   -2.0101643   -0.8006427 
C    -1.0572903   -2.2720560   -1.0521231 
C    -0.1028804   -2.0937707   -2.0787629 
C     0.5119154   -3.2015556   -2.6669702 
C     0.1945998   -4.5023875   -2.2413550 
C    -0.7548369   -4.6887318   -1.2285887 
C    -1.3794334   -3.5807601   -0.6386961 
H    -2.1023502   -3.7269431    0.1709374 
H    -1.0035240   -5.6978137   -0.8843217 
H     0.6935965   -5.3649090   -2.6943637 
H     1.2519694   -3.0483272   -3.4585546 
H     0.1645360   -1.0856494   -2.4071686 
H     0.4996875   -1.9141362    1.0019813 
C     3.1351606   -2.3433399    1.0550613 
C     2.5370669   -3.6161250    0.8869338 
C     3.1452062   -4.7743097    1.3829383 
C     4.3740867   -4.6918067    2.0551822 
C     4.9857975   -3.4394753    2.2178507 
C     4.3816605   -2.2778896    1.7217751 
H     4.8684891   -1.3082671    1.8358798 
H     5.9476217   -3.3651795    2.7375269 
H     4.8558098   -5.5972656    2.4403449 
H     2.6642519   -5.7471524    1.2301343 
H     1.5981487   -3.6981221    0.3291446 
