72
Energy =
O    -6.4057058   -0.8638993   -1.9903787 
C     1.1849755    1.3342875    0.1714498 
C     2.4575778    0.4553401    0.3884699 
C     0.1896023    0.2483971   -0.3551474 
C     1.9027503   -0.8837453    0.9600099 
C     0.4015644   -0.9584943    0.5672790 
C     1.3192371    2.4604612   -0.8979193 
C     3.6063527    1.0384092    1.2409806 
C    -1.1932703    0.8073297   -0.5560891 
C     0.6795141    1.9213771    1.5051632 
C     0.1597667    2.4631009   -1.9210639 
C    -1.2036819    2.1452344   -1.2861390 
C     4.7530957    0.0146203    1.4388571 
C     4.1484232    2.3737472    0.7034920 
C    -2.3154415    0.1908311   -0.0939927 
C     5.4358252   -0.4801305    0.1547466 
C     6.5840713   -1.4583565    0.4466493 
C    -3.6674218    0.6828823   -0.2671782 
C     7.3163595   -2.0314417   -0.7896068 
C    -4.8091316    0.1377570    0.2528622 
C    -6.1774578    0.6781015   -0.1160777 
C     8.0256432   -0.9403552   -1.6097835 
C     6.3905621   -2.8797815   -1.6783040 
C    -4.8455879   -1.0660077    1.1252261 
C    -7.0101064   -0.4476485   -0.7647161 
C    -5.7738672   -2.1666301    0.6357320 
C    -7.1539554   -1.6237553    0.2194266 
C    -4.1389980   -1.1649963    2.2703394 
H     2.8545217    0.2560918   -0.6269946 
H     0.5795455   -0.0335421   -1.3569224 
H     2.4741483   -1.7443326    0.5728806 
H     2.0162054   -0.9036536    2.0588890 
H     0.1361540   -1.9078978    0.0731215 
H    -0.2394880   -0.8736525    1.4618443 
H     2.2712618    2.3539077   -1.4463270 
H     1.3612009    3.4425763   -0.3930455 
H     3.1942357    1.2309251    2.2515500 
H    -0.3128993    2.3878025    1.3824278 
H     0.5884299    1.1503040    2.2896965 
H     1.3717819    2.6973974    1.8751499 
H     0.3622893    1.7160758   -2.7106643 
H     0.1171157    3.4416860   -2.4310735 
H    -1.4738784    2.9511705   -0.5734579 
H    -1.9906025    2.1562372   -2.0627233 
H     4.3701074   -0.8602101    1.9969677 
H     5.5172641    0.4777932    2.0937291 
H     3.3853798    3.1683260    0.7367991 
H     5.0099000    2.7112916    1.3076313 
H     4.4877355    2.2843480   -0.3438937 
H    -2.2074828   -0.7564276    0.4459638 
H     5.8197166    0.3835351   -0.4190549 
H     4.6879760   -0.9737318   -0.4931754 
H     6.1866553   -2.3037448    1.0427768 
H     7.3274025   -0.9522958    1.0939649 
H    -3.7958850    1.5737815   -0.8971178 
H     8.1011146   -2.7072332   -0.3951693 
H    -6.0860080    1.5287836   -0.8134158 
H    -6.7037792    1.0327003    0.7918348 
H     7.2994159   -0.2541451   -2.0824887 
H     8.6323301   -1.3863494   -2.4180539 
H     8.6979067   -0.3351293   -0.9751381 
H     5.6103267   -2.2600754   -2.1567421 
H     6.9614974   -3.3720927   -2.4857159 
H     5.8835723   -3.6675400   -1.0921588 
H    -8.0121974   -0.0667066   -1.0327387 
H    -5.3139964   -2.6324904   -0.2586989 
H    -5.8722081   -2.9564962    1.3997221 
H    -7.7457327   -2.4248153   -0.2570511 
H    -7.7111702   -1.2806149    1.1119387 
H    -4.2024443   -2.0606832    2.9002613 
H    -3.4906103   -0.3510756    2.6130793 
H    -5.4394040   -0.7906325   -1.8577942 
