76
Energy =
O     5.5596243    0.6512814   -1.8649086 
O     6.3778182   -2.0163793   -1.8377067 
O     5.5122300    0.0724397    0.3163036 
O     6.4718980   -3.3790345   -0.0384526 
N    -2.2630822    1.9340334   -0.0668626 
N    -2.5111547   -1.3217480    0.0867436 
N     0.3911009    1.7025422    0.3418453 
N     0.1493064   -1.4419869    0.4166804 
C     2.5649370    2.4976667    0.6999316 
C     2.2134900   -2.5263300    0.6170790 
C     1.6806000    1.3172283    0.5626724 
C     1.7553481    3.5997631    0.5387423 
C     1.4909546   -1.2367578    0.5472164 
C     1.2546290   -3.5095302    0.5417062 
C     0.4049088    3.0695178    0.3197936 
C    -0.0250047   -2.7992774    0.4222935 
C    -2.0284332    3.2947369   -0.0763625 
C    -3.8068813   -0.8759191   -0.0644040 
C    -2.4851140   -2.6939329    0.1743618 
C    -3.5990458    1.6740583   -0.2677760 
C     4.0477017    2.5079845    0.9589764 
C     3.7051153   -2.6908257    0.6390673 
C     2.1595437   -0.0024030    0.6445219 
C    -3.2819283    3.9593160   -0.3061219 
C    -4.6651056   -2.0423535   -0.0666329 
C    -4.2543998    2.9658418   -0.4554532 
C    -3.8484312   -3.1737129    0.0700218 
C    -0.7528132    3.8413067    0.1154206 
C    -1.2893640   -3.4080515    0.3235188 
C    -4.2614729    0.4419562   -0.2218869 
C     2.1193723    5.0536923    0.5725448 
C     4.9258439    2.3429061   -0.3064918 
C     4.2947113   -2.5781108   -0.7826295 
C     1.4295582   -4.9984716    0.5524789 
C    -3.4555117    5.4432145   -0.4275329 
C    -6.1587186   -2.0107225   -0.1803638 
C    -5.6636626    3.2118265   -0.7553706 
C    -4.1963944   -4.5867142    0.1293782 
C     5.3467883    0.9080948   -0.5624032 
C     5.7976019   -2.7173013   -0.7922841 
C    -6.4942108    2.4515345   -1.5013523 
C    -5.3743819   -5.1741406   -0.1800446 
H     4.3329632    1.7129920    1.6704557 
H     4.3069305    3.4668559    1.4384737 
H     3.9862535   -3.6708396    1.0599146 
H     4.1821152   -1.9234572    1.2712322 
H     3.2379059   -0.0844044    0.8131680 
H    -0.6627885    4.9310078    0.1070009 
H    -1.3455913   -4.4990695    0.3585153 
H    -1.4322469    1.3230638    0.1061971 
H    -1.5871220   -0.8357588    0.1638019 
H    -5.3444715    0.5291565   -0.3218903 
H     1.4869178    5.6132736    1.2861397 
H     3.1710426    5.2004383    0.8696213 
H     1.9853346    5.5273583   -0.4185261 
H     5.8721029    2.9034038   -0.1768253 
H     4.4390023    2.7499251   -1.2073440 
H     3.8900654   -3.3867054   -1.4221121 
H     4.0033081   -1.6302443   -1.2619100 
H     2.4789586   -5.2770378    0.7441080 
H     1.1331399   -5.4496149   -0.4134928 
H     0.8081663   -5.4733254    1.3341317 
H    -4.5062811    5.7397193   -0.2777983 
H    -3.1522056    5.8016538   -1.4294443 
H    -2.8400095    5.9804428    0.3144348 
H    -6.4976247   -2.3440656   -1.1798283 
H    -6.5629943   -1.0000530   -0.0120672 
H    -6.6189778   -2.6868579    0.5619283 
H    -6.0633272    4.1520973   -0.3490906 
H    -3.3832681   -5.2444941    0.4641386 
H    -7.5359898    2.7514556   -1.6574788 
H    -6.1609066    1.5367417   -2.0029728 
H    -5.4928488   -6.2582654   -0.0811134 
H    -6.2393551   -4.6182333   -0.5508721 
H     5.8768961   -0.2907770   -1.9303161 
H     7.3426547   -2.1838900   -1.7646469 
