92
Energy =
B    -1.6801799   -0.0003046   -0.2303966 
F    -2.6702424   -0.0006283    0.7308383 
F    -2.2054528    0.0003741   -1.5393105 
N    -0.7409402    1.2538296   -0.0695071 
C    -1.0671429    2.5570611    0.1453970 
C     0.1437617    3.3447718    0.2014497 
C     0.1793262    4.7495282    0.3169384 
C     0.1952780    5.9757159    0.4062137 
C     0.1960984    7.3924226    0.5266085 
C     1.4134291    8.1206361    0.5239672 
C     1.4029129    9.5124586    0.6516286 
C     0.1883510   10.2047626    0.7825294 
C    -1.0225498    9.4937673    0.7834027 
C    -1.0258288    8.1019441    0.6562536 
H    -1.9665986    7.5431189    0.6525634 
H    -1.9723285   10.0301010    0.8823712 
H     0.1853839   11.2952635    0.8814067 
H     2.3495404   10.0632417    0.6477476 
H     2.3573774    7.5774776    0.4177824 
C     1.2382656    2.4635197    0.0007286 
C     0.6562594    1.1530730   -0.1406373 
N     1.3098932   -0.0007216   -0.1844162 
C     0.6559637   -1.1543851   -0.1416281 
C     1.2376175   -2.4651142   -0.0014020 
C     0.1428582   -3.3462572    0.1984241 
C     0.1780150   -4.7511320    0.3125827 
C     0.1935854   -5.9774098    0.4006774 
C     0.1939568   -7.3942327    0.5197027 
C     1.4110631   -8.1228196    0.5165320 
C     1.4000983   -9.5147615    0.6428493 
C     0.1853038  -10.2068168    0.7729025 
C    -1.0253780   -9.4954490    0.7742876 
C    -1.0282087   -8.1035026    0.6484825 
H    -1.9688055   -7.5443835    0.6451898 
H    -1.9753365  -10.0315842    0.8726008 
H     0.1819861  -11.2974121    0.8707232 
H     2.3465565  -10.0658326    0.6385791 
H     2.3551944   -7.5798520    0.4110026 
C    -1.0678282   -2.5581723    0.1430356 
N    -0.7412661   -1.2548314   -0.0706517 
C    -2.4309218   -3.0812940    0.2688092 
C    -3.4871644   -2.6243464   -0.5531050 
C    -4.7635708   -3.1810050   -0.4313804 
C    -5.0143545   -4.1896936    0.5112046 
C    -3.9751155   -4.6439754    1.3374635 
C    -2.6922834   -4.1020118    1.2142951 
H    -1.8888584   -4.4483599    1.8692049 
H    -4.1653520   -5.4200975    2.0863850 
H    -6.0179603   -4.6182124    0.6044034 
H    -5.5700875   -2.8235616   -1.0799603 
H    -3.2953668   -1.8431252   -1.2913944 
C     2.6605105   -2.7787689   -0.0367092 
C     3.5654238   -1.9825984   -0.7760427 
C     4.9338830   -2.2620219   -0.8054186 
C     5.4387585   -3.3612073   -0.0815946 
C     4.5511959   -4.1711822    0.6593307 
C     3.1902462   -3.8861312    0.6771348 
H     2.5201855   -4.5122731    1.2712928 
H     4.9626135   -5.0139072    1.2225802 
O     6.7518600   -3.7172968   -0.0378260 
C     7.6928569   -2.9246094   -0.7507160 
H     8.6759998   -3.3813564   -0.5658698 
H     7.4838285   -2.9289402   -1.8376658 
H     7.6979059   -1.8792466   -0.3858756 
H     5.5959070   -1.6251794   -1.3974939 
H     3.1809985   -1.1339541   -1.3440644 
C     2.6612405    2.7768161   -0.0344654 
C     3.5658023    1.9811678   -0.7747873 
C     4.9343352    2.2602397   -0.8041067 
C     5.4396390    3.3585256   -0.0792177 
C     4.5524296    4.1679732    0.6627066 
C     3.1914010    3.8832877    0.6804403 
H     2.5216102    4.5090002    1.2753578 
H     4.9641805    5.0099893    1.2267727 
O     6.7528469    3.7142087   -0.0353119 
C     7.6934976    2.9219999   -0.7491896 
H     8.6768005    3.3782793   -0.5640404 
H     7.4842818    2.9275169   -1.8360976 
H     7.6983172    1.8762571   -0.3854367 
H     5.5960799    1.6238433   -1.3969731 
H     3.1810357    1.1332447   -1.3436590 
C    -2.4300917    3.0804314    0.2717077 
C    -3.4864969    2.6245010   -0.5505637 
C    -4.7627482    3.1813908   -0.4282772 
C    -5.0132193    4.1892971    0.5152269 
C    -3.9738183    4.6425641    1.3418390 
C    -2.6911368    4.1003689    1.2181230 
H    -1.8875892    4.4459126    1.8733083 
H    -4.1638106    5.4180704    2.0914605 
H    -6.0167087    4.6179918    0.6088662 
H    -5.5693889    2.8247529   -1.0771464 
H    -3.2949435    1.8438920   -1.2895640 
