99
Energy =
O   -15.8533256   -2.5131107    0.4868045 
C    13.2298710   -1.4799248    0.7010626 
C    14.6491699   -0.8649017    0.7381827 
C    14.6347174    0.6123776    1.1249291 
C    12.2257631   -0.5314415    0.0028881 
C    13.8654482    1.3966626    0.0627824 
C    12.5500408    0.7573320   -0.3316841 
C    12.7334639   -1.7620115    2.1399753 
C    13.3329260   -2.8250671   -0.0584425 
C    10.9066718   -1.1156798   -0.2621097 
C    11.6722305    1.6646524   -1.1620043 
C     9.6981087   -0.4910838   -0.1108318 
C     8.4012434   -1.0810061   -0.3629288 
C   -15.8644826   -1.1717043    1.0172673 
C     8.3347263   -2.5030599   -0.8653460 
C   -14.9455665   -0.3635831    0.0787114 
C     7.2736005   -0.3102344   -0.1328085 
C   -13.5057188   -0.8823859   -0.0150942 
C   -12.6913851   -0.1544720   -1.1073357 
C   -15.3519675   -1.1843380    2.4679156 
C   -17.2967776   -0.6134508    0.9565606 
C   -11.2603571   -0.6291714   -1.2157550 
C     5.9077715   -0.6805282   -0.3180571 
C   -11.0665945   -2.0396499   -1.7098998 
C   -10.2333810    0.2009361   -0.8574619 
C     4.8509731    0.1711179   -0.0618339 
C    -8.8234247   -0.0915529   -0.8763721 
C     3.4578381   -0.1273387   -0.2278207 
C    -7.8576617    0.8100515   -0.4975665 
C     3.0566387   -1.4957462   -0.7278246 
C     2.5276268    0.8626245    0.0788826 
C    -6.4347327    0.5848959   -0.4937747 
C     1.1131680    0.7911339   -0.0133497 
C    -5.9103805   -0.7591735   -0.9413108 
C    -5.6021353    1.6167003   -0.0791399 
C     0.2691908    1.8426859    0.3158963 
C    -4.1815328    1.6132597   -0.0013277 
C    -3.4471860    2.7046158    0.4264847 
C    -1.1450881    1.7903311    0.2259611 
C    -2.0187060    2.8260784    0.5458798 
C    -1.4765692    4.1533839    1.0427982 
H    15.1079615   -0.9644046   -0.2652037 
H    15.2743254   -1.4558610    1.4330662 
H    15.6629083    1.0036411    1.2249044 
H    14.1477479    0.7406142    2.1097882 
H    14.4904567    1.5165312   -0.8484099 
H    13.6626178    2.4299912    0.4087276 
H    13.3956003   -2.4897842    2.6441860 
H    11.7100219   -2.1754656    2.1238570 
H    12.7083866   -0.8381450    2.7431639 
H    14.1457266   -3.4325684    0.3786862 
H    13.5630152   -2.6602490   -1.1258220 
H    12.4063823   -3.4197397    0.0107304 
H    10.8950262   -2.1755653   -0.5440864 
H    11.1631833    2.4243187   -0.5363064 
H    10.8997463    1.1137567   -1.7201802 
H    12.2988394    2.2264779   -1.8811017 
H     9.6833979    0.5421547    0.2580311 
H   -15.4026964   -0.3917753   -0.9285686 
H   -14.9519322    0.6945849    0.4022083 
H     8.8149122   -3.1942629   -0.1476826 
H     7.3012187   -2.8450132   -1.0223448 
H     8.8782933   -2.6070300   -1.8223908 
H   -12.9848578   -0.7578252    0.9521196 
H   -13.5436485   -1.9656943   -0.2223471 
H     7.4470111    0.7118463    0.2337903 
H   -12.7039429    0.9325782   -0.9059477 
H   -13.2037355   -0.3051293   -2.0802523 
H   -15.2845530   -0.1619873    2.8802970 
H   -16.0423184   -1.7612356    3.1115104 
H   -14.3569960   -1.6546604    2.5265513 
H   -17.9736499   -1.2145623    1.5920657 
H   -17.3389086    0.4312916    1.3125417 
H   -17.6726772   -0.6495706   -0.0798814 
H     5.6912539   -1.6910475   -0.6838742 
H   -16.3950734   -3.0610364    1.0829071 
H   -11.5200700   -2.7686628   -1.0116253 
H   -11.5784647   -2.1803181   -2.6813333 
H   -10.0074811   -2.3094462   -1.8386597 
H   -10.5046033    1.2105761   -0.5156003 
H     5.0888243    1.1800572    0.3042569 
H    -8.5124373   -1.0882292   -1.2110971 
H    -8.1887866    1.8036600   -0.1631122 
H     3.4265569   -2.2853664   -0.0481418 
H     3.4965074   -1.6943840   -1.7225272 
H     1.9658947   -1.6077017   -0.8128229 
H     2.9367722    1.8191634    0.4349292 
H     0.6513744   -0.1410923   -0.3645300 
H    -6.2191238   -0.9735506   -1.9811457 
H    -4.8131513   -0.8185287   -0.8957924 
H    -6.3203802   -1.5692353   -0.3103120 
H    -6.0969186    2.5504179    0.2248071 
H     0.7357415    2.7726576    0.6668102 
H    -3.6504060    0.7004652   -0.2969252 
H    -4.0227245    3.5966300    0.7119872 
H    -1.5726078    0.8439261   -0.1298770 
H    -0.8877823    4.0287919    1.9700979 
H    -2.2947907    4.8601223    1.2556275 
H    -0.8100010    4.6235505    0.2965517 
