6
	Energy:       0.7078648
C         -6.13841        3.45356        0.00000
C         -4.81388        3.45356        0.00000
H         -6.70072        2.59728        0.36431
H         -6.70072        4.30985       -0.36431
H         -4.25157        2.59728        0.36431
H         -4.25157        4.30985       -0.36431
